
#======================================================================
# CRYSTAL DATA
#----------------------------------------------------------------------
data_VESTA_phase_1

_chemical_name_common                  'New structure'
_cell_length_a                         2.866000
_cell_length_b                         2.866000
_cell_length_c                         2.866000
_cell_angle_alpha                      90.000000
_cell_angle_beta                       90.000000
_cell_angle_gamma                      90.000000
_cell_volume                           23.541196
_space_group_name_H-M_alt              'I m -3 m'
_space_group_IT_number                 229

loop_
_space_group_symop_operation_xyz
   'x, y, z'
   '-x, -y, -z'
   '-x, -y, z'
   'x, y, -z'
   '-x, y, -z'
   'x, -y, z'
   'x, -y, -z'
   '-x, y, z'
   'z, x, y'
   '-z, -x, -y'
   'z, -x, -y'
   '-z, x, y'
   '-z, -x, y'
   'z, x, -y'
   '-z, x, -y'
   'z, -x, y'
   'y, z, x'
   '-y, -z, -x'
   '-y, z, -x'
   'y, -z, x'
   'y, -z, -x'
   '-y, z, x'
   '-y, -z, x'
   'y, z, -x'
   'y, x, -z'
   '-y, -x, z'
   '-y, -x, -z'
   'y, x, z'
   'y, -x, z'
   '-y, x, -z'
   '-y, x, z'
   'y, -x, -z'
   'x, z, -y'
   '-x, -z, y'
   '-x, z, y'
   'x, -z, -y'
   '-x, -z, -y'
   'x, z, y'
   'x, -z, y'
   '-x, z, -y'
   'z, y, -x'
   '-z, -y, x'
   'z, -y, x'
   '-z, y, -x'
   '-z, y, x'
   'z, -y, -x'
   '-z, -y, -x'
   'z, y, x'
   'x+1/2, y+1/2, z+1/2'
   '-x+1/2, -y+1/2, -z+1/2'
   '-x+1/2, -y+1/2, z+1/2'
   'x+1/2, y+1/2, -z+1/2'
   '-x+1/2, y+1/2, -z+1/2'
   'x+1/2, -y+1/2, z+1/2'
   'x+1/2, -y+1/2, -z+1/2'
   '-x+1/2, y+1/2, z+1/2'
   'z+1/2, x+1/2, y+1/2'
   '-z+1/2, -x+1/2, -y+1/2'
   'z+1/2, -x+1/2, -y+1/2'
   '-z+1/2, x+1/2, y+1/2'
   '-z+1/2, -x+1/2, y+1/2'
   'z+1/2, x+1/2, -y+1/2'
   '-z+1/2, x+1/2, -y+1/2'
   'z+1/2, -x+1/2, y+1/2'
   'y+1/2, z+1/2, x+1/2'
   '-y+1/2, -z+1/2, -x+1/2'
   '-y+1/2, z+1/2, -x+1/2'
   'y+1/2, -z+1/2, x+1/2'
   'y+1/2, -z+1/2, -x+1/2'
   '-y+1/2, z+1/2, x+1/2'
   '-y+1/2, -z+1/2, x+1/2'
   'y+1/2, z+1/2, -x+1/2'
   'y+1/2, x+1/2, -z+1/2'
   '-y+1/2, -x+1/2, z+1/2'
   '-y+1/2, -x+1/2, -z+1/2'
   'y+1/2, x+1/2, z+1/2'
   'y+1/2, -x+1/2, z+1/2'
   '-y+1/2, x+1/2, -z+1/2'
   '-y+1/2, x+1/2, z+1/2'
   'y+1/2, -x+1/2, -z+1/2'
   'x+1/2, z+1/2, -y+1/2'
   '-x+1/2, -z+1/2, y+1/2'
   '-x+1/2, z+1/2, y+1/2'
   'x+1/2, -z+1/2, -y+1/2'
   '-x+1/2, -z+1/2, -y+1/2'
   'x+1/2, z+1/2, y+1/2'
   'x+1/2, -z+1/2, y+1/2'
   '-x+1/2, z+1/2, -y+1/2'
   'z+1/2, y+1/2, -x+1/2'
   '-z+1/2, -y+1/2, x+1/2'
   'z+1/2, -y+1/2, x+1/2'
   '-z+1/2, y+1/2, -x+1/2'
   '-z+1/2, y+1/2, x+1/2'
   'z+1/2, -y+1/2, -x+1/2'
   '-z+1/2, -y+1/2, -x+1/2'
   'z+1/2, y+1/2, x+1/2'

loop_
   _atom_site_label
   _atom_site_occupancy
   _atom_site_fract_x
   _atom_site_fract_y
   _atom_site_fract_z
   _atom_site_adp_type
   _atom_site_B_iso_or_equiv
   _atom_site_type_symbol
   Fe          1.0     0.000000     0.000000     0.000000    Biso  1.000000 Fe
